/*--------------------------------*- C++ -*----------------------------------*\
  OpenFOAM 0/T — Temperature BCs  (T_inf = 300 K)
\*---------------------------------------------------------------------------*/
FoamFile
{
    version     2.0;
    format      ascii;
    class       volScalarField;
    object      T;
}

dimensions      [0 0 0 1 0 0 0];

internalField   uniform 300;

boundaryField
{
    inlet   { type fixedValue;    value uniform 300; }
    outlet  { type zeroGradient; }
    top     { type zeroGradient; }
    wedge   { type zeroGradient; }
    front   { type empty; }
    back    { type empty; }
}

// ************************************************************************* //
